//SY20ZR00 JOB 1,REVIEW,MSGCLASS=A,CLASS=A,REGION=256K
//*
//*   PROBLEM DESCRIPTION(S):
//*     REVIEW  -
//*       Refit TSO REVIEW command and REVSMF subroutine from CBT
//*       tape 249 file 296 to run under MVT.
//*
//*   SPECIAL CONDITIONS:
//*     DEPENDENCY:
//*       Assembly of REVIEW and REVSMF requires the OS/VS XF
//*       assembler IFOX00.
//*
//*     DEPENDENCY:
//*       REVIEW and REVSMF use System/370 instructions.  The
//*       hardware or hardware emulator MVT is running on must
//*       support System/370 instructions, or the version of MVT
//*       being used must include software simulation of System/370
//*       instructions.
//*
//*     DEPENDENCY:
//*       Usermod TMVT818 or equivalent must be installed to add
//*       STLINENO functionality to MVT SVC 94.  Otherwise STLINENO
//*       acts as a no-op.
//*
//*   COMMENTS:
//*     LAST CHANGE:  2010/06/22
//*
//*     THE FOLLOWING MODULES AND/OR MACROS ARE AFFECTED BY THIS USERMOD:
//*
//*     MODULES
//*       REVIEW
//*       REVSMF
//*
//*     MACROS
//*       STFSMODE
//*       STLINENO
//*
/*JOBPARM LINES=9999,LINECT=0
//*MAIN LINES=100
//*
//*-----------------------------------------------------------------***
//*     Assemble REVIEW.                                            ***
//*-----------------------------------------------------------------***
//ASM1    EXEC PGM=IFOX00,REGION=256K,
//             PARM=(DECK,NOOBJECT,NORLD,RENT,'XREF(SHORT)')
//SYSLIB   DD  DSN=SYS1.MODGEN,DISP=SHR,DCB=BLKSIZE=3360
//         DD  DSN=SYS1.MACLIB,DISP=SHR
//SYSUT1   DD  UNIT=SYSDA,SPACE=(CYL,(10,5))
//SYSUT2   DD  UNIT=SYSDA,SPACE=(CYL,(10,5))
//SYSUT3   DD  UNIT=SYSDA,SPACE=(CYL,(10,5))
//SYSPUNCH DD  UNIT=SYSDA,SPACE=(TRK,(15,5,2)),DISP=(NEW,PASS),
//         DCB=BLKSIZE=3200,DSN=&&OBJSET(REVIEW)
//SYSPRINT DD  SYSOUT=A
//SYSTERM  DD  SYSOUT=A
//SYSIN DD *
         PRINT OFF
         MACRO                                                          00050000
&NAME    STFSMODE &A,&INITIAL=NO,&RSHWKEY=64 PROTOTYPE                  00100000
.********************************************************************** 00150000
.*                                                                    * 00200000
.* STATUS - OS/VS2 TSO/VTAM DYNAMIC RESHOW LEVEL 2.0                  * 00250000
.*                                                                    * 00300000
.* NAME - STFSMODE  (SET FULL SCREEN MODE)                            * 00350000
.*                                                                    * 00400000
.* FUNCTION - THE STFSMODE MACRO IS USED TO SPECIFY WHETHER OR NOT    * 00450000
.*            AN APPLICATION IS PRESENTING DISPLAYS TO A TSO/VTAM     * 00500000
.*            DISPLAY TERMINAL IN FULL SCREEN MODE.                   * 00550000
.*            WHEN INITIALLY SETTING THE MODE ON, INITIAL=YES WILL    * 00560000
.*            PREVENT PAGING FOR THE FIRST FULL SCREEN TPUT ISSUED BY * 00570000
.*            THE APPLICATION.                                        * 00580000
.*            RSHWKEY IS USED TO SPECIFY WHICH PFKEY IS TO BE USED    * 00582000
.*            AS THE RESHOW KEY.  E.G., RSHWKEY=3 MEANS THAT PFKEY 3  * 00584000
.*            IS TO BE THE RESHOW KEY.  WHEN STFSMODE IS OFF,         * 00586000
.*            RSHWKEY IS NOT TO BE SPECIFIED.  WHEN STFSMODE IS ON    * 00588000
.*            AND NO RSHWKEY HAS BEEN SPECIFIED, RSHWKEY WILL DEFAULT * 00590000
.*            TO ZERO.                                                * 00592000
.*                                                                    * 00600000
.*       THE MACRO PROTOTYPE IS ABOVE                                 * 00650000
.*                                                                    * 00700000
.*       THE STANDARD FORM OF THE EXPANSION IS BELOW                  * 00750000
.*&NAME  LA    1,128+64                 FLAGS FOR MODE/INITIAL CALL   * 00800000
.*       SLL   1,24                     SHIFT TO HIGH ORDER BYTE      * 00850000
.*       SR    0,0                      CLEAR REGISTER                * 00860000
.*       LA    0,10                     LOAD RSHWKEY                  * 00870000
.*       OR    1,0                      RSHWKEY IN RIGHTMOST BYTE     * 00880000
.*       LA    0,18                     LOAD ENTRY CODE               * 00900000
.*       SLL   0,24                     SHIFT TO HIGH ORDER BYTE      * 00950000
.*       SVC   94                       TERMINAL CONTROL MACRO SVC    * 01000000
.*                                                                    * 01050000
.* Note - In MVT, STFSMODE returns a return code of zero, but      @D01 01050200
.*        otherwise doesn't do anything.                           @D01 01050400
.*                                                                 @D01 01050600
.********************************************************************** 01100000
         LCLA  &SYSFS                                                   01105000
         LCLA  &SYSINIT                                                 01110000
&SYSFS   SETA  128                                                      01115000
&SYSINIT SETA  0                                                        01120000
         AIF   ('&INITIAL' NE 'YES' AND '&INITIAL' NE 'NO').ERROR1      01125000
         AIF   (&RSHWKEY GT 0 AND &RSHWKEY LT 13).TESTFS                01125700
         AIF   (&RSHWKEY NE 64).ERROR2                                  01126100
         AGO   .NEXT                                                    01127100
.TESTFS  ANOP                                                           01127800
         AIF   ('&A' EQ 'OFF').ERROR3                                   01128500
.NEXT    ANOP                                                           01129200
         AIF   ('&INITIAL' EQ 'NO').TESTA                               01130000
&SYSINIT SETA  64                                                       01135000
.TESTA   ANOP                                                           01140000
         AIF   ('&A' EQ 'ON' OR '&A' EQ '').FSON                        01150000
         AIF   ('&A' EQ 'OFF').FSOFF                                    01200000
.ERROR   IHBERMAC 36,,&A                                                01250000
         MEXIT                                                          01300000
.ERROR1  IHBERMAC 54,,,                                                 01310000
         MEXIT                                                          01320000
.ERROR2  IHBERMAC 54,,RSHWKEY                                           01326000
         MEXIT                                                          01332000
.ERROR3  IHBERMAC 1020,RSHWKEY,&A                                       01338000
         MEXIT                                                          01344000
.FSON    ANOP                                                           01350000
&NAME    LA    1,&SYSFS+&SYSINIT -      FLAGS FOR MODE/INITIAL CALL     01400000
         SLL   1,24 -                   SHIFT TO HIGH ORDER BYTE        01450000
         AGO   .PFCD                                                    01500000
.FSOFF   ANOP                                                           01550000
&NAME    SR    1,1 -                    CLEAR PARAMETER REGISTER        01600000
.PFCD    ANOP                                                           01608000
         AIF   ('&A' EQ 'OFF').ENTRYCD                                  01616000
         AIF   (&RSHWKEY EQ 64).ENTRYCD                                 01620000
         SR    0,0 -                    CLEAR REGISTER                  01624000
         LA    0,&RSHWKEY -             LOAD RSHWKEY                    01632000
         OR    1,0 -                    RSHWKEY IN RIGHTMOST BYTE       01638000
.ENTRYCD ANOP                                                           01650000
         LA    0,18 -                   LOAD ENTRY CODE                 01700000
         SLL   0,24 -                   SHIFT TO HIGH ORDER BYTE        01750000
         SVC   94 -                     TERMINAL CONTROL MACRO SVC      01800000
         MEND                                                           01850000
         MACRO                                                          00050000
&NAME    STLINENO &LINE=,&LINELOC=,&MODE=OFF      PROTOTYPE             00100000
.********************************************************************** 00150000
.*                                                                    * 00200000
.* STATUS - CHANGE LEVEL 000                                          * 00250000
.*                                                                    * 00300000
.* NAME - STLINENO   (SET LINE NUMBER FOR NEXT TPUT EDIT TO 3270)     * 00350000
.*                                                                    * 00400000
.* FUNCTION - THE STLINENO MACRO IS USED TO SPECIFY ON WHICH LINE OF  * 00450000
.*            A TSO/VTAM DISPLAY SCREEN THE NEXT NON-FULL SCREEN TPUT * 00500000
.*            IS TO APPEAR.                                           * 00550000
.*                                                                    * 00600000
.*       THE MACRO PROTOTYPE IS ABOVE                                 * 00650000
.*                                                                    * 00700000
.*       THE STANDARD FORM OF THE EXPANSION IS BELOW                  * 00750000
.*                                                                    * 00800000
.*&NAME  LA    1,3                      PUT LINE NUM IN PARM REG      * 00850000
.*       LA    0,19                     LOAD ENTRY CODE               * 00900000
.*       SLL   0,24                     SHIFT TO HIGH ORDER BYTE      * 00950000
.*       SVC   94                       TERMINAL CONTROL MACRO SVC    * 01000000
.*                                                                    * 01050000
.* Note - In MVT, STLINENO operates as in MVS 3.8.  It sets the    @D01 01050200
.*        line for the next non-full screen TPUT.  STLINENO with   @D01 01050400
.*        LINE=1 does not automatically clear the screen as it     @D01 01050600
.*        does in more modern versions of MVS.                     @D01 01050800
.*                                                                 @D01 01051000
.********************************************************************** 01100000
         AIF   ('&LINE' NE '' AND '&LINELOC' NE '').ERROR1              01150000
         AIF   ('&LINE' EQ '' AND '&LINELOC' EQ '').ERROR2              01200000
         AIF   ('&MODE' NE 'OFF' AND '&MODE' NE 'ON').ERROR1            01250000
         AIF   ('&LINELOC' NE '').LNADDR                                01300000
         AIF   ('&LINE'(1,1) EQ '(').LNREG                              01350000
&NAME    LA    1,&LINE -                PUT LINE NUM IN PARM REG        01400000
         AGO   .STMODE                                                  01450000
.LNREG   ANOP                                                           01470000
&NAME    LR    1,&LINE(1) -             PUT LINE NUM IN PARM REG        01500000
         AGO   .STMODE                                                  01550000
.LNADDR  ANOP                                                           01600000
         AIF   ('&LINELOC'(1,1) EQ '(').LNADREG                         01650000
&NAME    L     1,&LINELOC -             PUT LINE NUM IN PARM REG        01700000
         AGO   .STMODE                                                  01750000
.LNADREG ANOP                                                           01800000
&NAME    L     1,0(,&LINELOC(1)) -      PUT LINE NUM IN PARM REG        01850000
.STMODE  ANOP                                                           01900000
         AIF   ('&MODE' EQ 'OFF').STMDOFF                               01950000
         LA    0,128 -                  PREPARE FLAY BYTE               02000000
         SLL   0,24 -                   SHIFT TO HIGH ORDER BYTE        02050000
         OR    1,0 -                    SET MODE=ON FLAG IN REG 1       02100000
         AGO   .ENTRYCD                                                 02110000
.STMDOFF ANOP                                                           02120000
         SR    0,0 -                    PREPARE FLAG BYTE               02130000
         OR    1,0 -                    SET MODE=OFF FLAG IN REG 1      02140000
.ENTRYCD ANOP                                                           02150000
         LA    0,19 -                   LOAD ENTRY CODE                 02200000
         SLL   0,24 -                   SHIFT TO HIGH ORDER BYTE        02250000
         SVC   94 -                     TERMINAL CONTROL MACRO SVC      02300000
         MEXIT                                                          02350000
.ERROR1  IHBERMAC 54,,,                                                 02400000
         MEXIT                                                          02450000
.ERROR2  IHBERMAC 24,,,                                                 02500000
         MEND                                                           02550000
         PRINT ON
         TITLE '  R E V I E W   '                                       00320000
*********************************************************************** 00330000
*                                                                     * 00340000
*        REVIEW - TSO COMMAND FOR EXAMINING A DATA SET                * 00350000
*                 ON A 3270 DISPLAY STATION SCREEN                    * 00360000
*                                                                     * 00370000
*********************************************************************** 00380000
*                                                                       00390000
*        WRITTEN BY. BILL GODFREY, PRC (PLANNING RESEARCH CORPORATION). 00400000
*        INSTALLATION. AIR FORCE DATA SERVICES CENTER, PENTAGON.        00410000
*        DATE WRITTEN. JANUARY 19 1981.                                 00420000
*        DATE UPDATED. MARCH 18 1982.                                   00430000
*        ATTRIBUTES. RE-ENTRANT.                                        00440000
*        LOCAL MACROS USED. DCS. (DEFINE CONSTANTS FOR SCREEN).         00450000
*        DESCRIPTION.                                                   00460000
*         THIS TSO COMMAND DISPLAYS A DATA SET ON A 3270 TERMINAL       00470000
*         IN FULLSCREEN MODE.                                           00480000
*                                                                       00490000
*         LOG OF CHANGES.                                               00500000
*         27MAR81 - ALLOW PFK DEFINITIONS TO BE CHANGED.                00510000
*         10JUL81 - IKJRLSA SOON AFTER PARSE. VOLUME KEYWORD.           00520000
*                   FIXED BUG OF IKJEFF18 BEING CALLED TWICE.           00530000
*                   MISCELLANEOUS INTERNAL RESTRUCTURING OF CODE TO     00540000
*                   TO ALLOW FUTURE CHANGES. OLD CODE HAD USED UP       00550000
*                   ALL 3 BASE REGISTERS.                               00560000
*         14JUL81 - BYPASS IKJEHDEF IF VOL SPECIFIED. ADD UNIT KW.      00570000
*                   HEX SUBCOMMAND WITHOUT OPERANDS WILL FLIP-FLOP      00580000
*                   BETWEEN HEX ON AND HEX OFF. PFK9 IS NOW HEX         00590000
*                   INSTEAD OF HEX ON. PFK12 IS NO LONGER HEX OFF.      00600000
*                   SMF SUBCOMMAND WITHOUT OPERANDS WILL FLIP FLOP.     00610000
*         20JUL81 - FINDSMF SUBCOMMAND ADDED, FOR SMF RECORD TYPE.      00620000
*         29SEP81 - ACCEPT PFK 13-24 CORRESPONDING TO 1-12.             00630000
*                   FIX BUG AT CLC FOR REPLY 'FINDSMF'.                 00640000
*         29JAN82 - SET UP IOPL BEFORE DOING GTSIZE/ERRTERM.            00650000
*         29JAN82 - ALLOW MEMBER TO BE SPECIFIED WITH DDNAME, SO USER   00660000
*                   CAN DO THINGS LIKE REVIEW SYSPROC(MEMBER) FILE      00670000
*                   (AND SHOW DDNAME+NNN IF CONCATENATED).              00680000
*                   REPLACE 'POINT' WITH 'FIND' TO SUPPORT              00690000
*                   CONCATENATED PDS'S.                                 00700000
*         18MAR82 - CALL REVSMF SUBPROGRAM TO FORMAT SMF DATA.          00710000
*                                                                       00720000
*         18JUN84 - MODIFIED BY A. BRUCE LELAND SIMILAR TO HEL COMMAND: 00730000
*                 . MOVED DCS MACRO TO FRONT FOR IFOX ASSEMBLER     ABL 00740000
*                 . ADDED HELP SUBCOMMAND                           ABL 00750000
*                 . ADDED TSO SUBCOMMAND                            ABL 00760000
*                 . CHANGED FIND TO ALWAYS REPOSITION THE SCREEN    ABL 00770000
*                 . CHANGED DEBUG TO SHOW PREVIOUS TGET RESULTS     ABL 00780000
*                 . ADDED CHECK FOR VTAM RESHOW                     ABL 00790000
*                 . ADDED VTAM FULL-SCREEN CONTROLS                 ABL 00800000
*                 . CHANGED DEFAULT DISPLAY TO ASIS                 ABL 00810000
*                 . ADDED PFK SHIFT WITH NUMERIC (AND M) ENTRY      ABL 00820000
*                 . CHANGED PFK INITIAL DEFINITIONS SLIGHTLY        ABL 00830000
*                 . ALLOW USE BY TERMINALS WITH MORE THAN 24 ROWS   ABL 00840000
*                 . CHANGED BLANK ROUTINE TO CLEAR LAST SCREEN BYTE ABL 00850000
*                 . CHANGED RIGHT ROUTINE SLIGHTLY                  ABL 00860000
*                 . MODIFIED THE HELP MEMBER (FOR SUBCOMMANDS)      ABL 00870000
*                                                                       00880000
*         11JUL84 - TSO SUBCOMMAND: IF QUOTED, BACK UP 1 CHARACTER  ABL 00890000
*                 . TSO SUBCOMMAND: TURN FULLSCREEN OFF AND ON      ABL 00900000
*                                                                       00910000
*         14MAY85 - MORE CHANGES TO SYNCHRONIZE WITH HEL COMMAND:   ABL 00920000
*                 . SUPPORT WAS ADDED FOR 3270-X TERMINALS          ABL 00930000
*                 . 3278-5 TERMINALS ALWAYS USE 24X80 DISPLAY MODE  ABL 00940000
*                 . PF 2 AND 4 DEFAULTS CHANGED TO MATCH HEL        ABL 00950000
*                                                                       00960000
*        NOTES.                                                         00970000
*         KNOWN BUGS.                                                   00980000
*          WHEN BROWSING VARIABLE SPANNED RECORDS, THE 'UP'             00990000
*          SUBCOMMAND WILL GIVE UNPREDICTABLE RESULTS.                  01000000
*          SO WILL 'DOWN' IF THE RECORDS YOU ARE GOING DOWN TO          01010000
*          HAVE ALREADY BEEN READ ONCE AND ARE THEREFORE IN THE         01020000
*          CHECKPOINT TABLE.                                            01030000
*          MORE INFORMATION MUST BE SAVED IN THE CHECKPOINT TABLE       01040000
*          IN ORDER TO FIX THIS BUG. (SMF IS VARIABLE SPANNED).         01050000
*                                                                       01060000
*********************************************************************** 01070000
         EJECT                                                          01080000
*********************************************************************** 01090000
*                                                                       01100000
*         SYNTAX -   REVIEW DSNAME                                      01110000
*          OR        REVIEW DDNAME FILE                                 01120000
*                                                                       01130000
*         IF THE SECOND OPERAND IS 'FILE', THAT MEANS THE               01140000
*         FIRST OPERAND IS NOT A DSNAME BUT A DDNAME.                   01150000
*                                                                       01160000
*         THE SCREEN WILL NORMALLY CONTAIN 20 RECORDS, ONE PER LINE,    01170000
*         80 CHARACTERS PER LINE.  TO DISPLAY RECORDS LONGER THAN 80    01180000
*         BYTES, THERE IS A 'RIGHT' SUBCOMMAND WHICH CAUSES DATA TO     01190000
*         THE RIGHT OF THE DATA ON THE SCREEN TO BE DISPLAYED.          01200000
*         THE 'LEFT' SUBCOMMAND CAN THEN BE USED TO DISPLAY DATA        01210000
*         BACK TOWARDS THE FRONT OF THE RECORD.                         01220000
*                                                                       01230000
*         SUBCOMMANDS -                                                 01240000
*         UP       - DISPLAY RECORDS ABOVE THOSE ON THE SCREEN          01250000
*         DOWN     - DISPLAY RECORDS BELOW THOSE ON THE SCREEN          01260000
*         TOP      - DISPLAY THE FIRST RECORDS                          01270000
*         TSO      - ISSUE A TSO COMMAND                            ABL 01280000
*         HELP     - DISPLAY A HELP SCREEN                          ABL 01290000
*         BOTTOM   - DISPLAY THE LAST RECORDS                           01300000
*         RIGHT    - DISPLAY DATA TO THE RIGHT                          01310000
*         LEFT     - DISPLAY DATA TO THE LEFT                           01320000
*         LIST     - DISPLAY A SPECIFIED RECORD NUMBER                  01330000
*         FIND     - DISPLAY A RECORD CONTAINING A SPECIFIED STRING     01340000
*         CAPS     - TRANSLATE LOWER CASE LETTERS TO CAPS               01350000
*         ASIS     - LEAVE LOWER CASE LETTERS IN LOWER CASE             01360000
*         HEX ON   - DISPLAY DATA IN HEXADECIMAL FORMAT                 01370000
*         HEX OFF  - TURN OFF HEXADECIMAL FORMATTING                    01380000
*         HEX      - SWITCH HEXADECIMAL FORMATTING ON/OFF.              01390000
*         PFKNN    - CHANGE DEFINITION OF PF KEY NN.                    01400000
*         SMF ON   - DISPLAY SMF RECORDS WITH TIME AND DATE FORMATTED   01410000
*         SMF OFF  - TURN OFF SMF FORMATTING                            01420000
*         SMF      - SWITCH SMF FORMATTING ON/OFF.                      01430000
*         FINDSMF  - FIND A TYPE OF SMF RECORD                          01440000
*         MEMBER   - DISPLAY A DIFFERENT MEMBER OF THE SAME PDS         01450000
*         END      - END THE COMMAND                                    01460000
*                                                                       01470000
*         WHEN 'UP' OR 'DOWN' DOES NOT SPECIFY HOW FAR UP OR DOWN,      01480000
*         THE 'RANGE' VALUE IS USED.  THIS VALUE IS ALWAYS DISPLAYED    01490000
*         NEAR THE TOP OF THE SCREEN AND CAN BE CHANGED BY MOVING       01500000
*         THE CURSOR OVER THE VALUE AND TYPING IN A NEW VALUE.          01510000
*         THE NEW VALUE WILL REMAIN IN EFFECT UNTIL THE COMMAND         01520000
*         ENDS OR UNTIL YOU CHANGE IT AGAIN.                            01530000
*                                                                       01540000
*********************************************************************** 01550000
         EJECT                                                          01560000
*********************************************************************** 01570000
*                                                                       01580000
*         PROGRAM FUNCTION KEYS                                         01590000
*                                                                       01600000
*         SOME OF THE SUBCOMMANDS DO NOT HAVE TO BE TYPED IN            01610000
*         IF THE TERMINAL IS EQUIPPED WITH PROGRAM FUNCTION KEYS.       01620000
*         FOR EXAMPLE, HITTING KEY 'PF8' IS EQUIVALENT TO               01630000
*         TYPING IN 'DOWN' AND HITTING THE 'ENTER' KEY.                 01640000
*                                                                       01650000
*         HERE ARE THE MEANINGS ASSIGNED TO EACH PF KEY.                01660000
*                                                                       01670000
*         ----------------------------------------------------          01680000
*         I                I                I                I          01690000
*         I      PF1       I      PF2       I      PF3       I          01700000
*         I                I                I                I          01710000
*         I      HELP      I                I      END       I      ABL 01720000
*         I                I                I                I          01730000
*         ----------------------------------------------------          01740000
*         I                I                I                I          01750000
*         I      PF4       I      PF5       I      PF6       I          01760000
*         I                I                I                I          01770000
*         I      END       I      FIND      I                I      ABL 01780000
*         I                I                I                I          01790000
*         ----------------------------------------------------          01800000
*         I                I                I                I          01810000
*         I      PF7       I      PF8       I      PF9       I          01820000
*         I                I                I                I          01830000
*         I      UP        I      DOWN      I      HEX       I          01840000
*         I                I                I                I          01850000
*         ----------------------------------------------------          01860000
*         I                I                I                I          01870000
*         I      PF10      I      PF11      I      PF12      I          01880000
*         I                I                I                I          01890000
*         I      LEFT      I      RIGHT     I                I          01900000
*         I                I                I                I          01910000
*         ----------------------------------------------------          01920000
*                                                                       01930000
*         THE SCREEN IS WRITTEN USING THE 'EXPANDED FULLSCREEN'         01940000
*         (EXPFLS=YES) FEATURE OF TCAM, WHICH REQUIRES THAT THE         01950000
*         FIRST ORDER IN THE BUFFER BE 'SBA,24,80' OR 'SBA,24,79'.      01960000
*         THE FIRST IS USED TO SUPPRESS LINE COUNTING, AND THE          01970000
*         LATTER IS USED TO RESET THE LINE COUNTER.                     01980000
*                                                                       01990000
*         IF AN UNQUALIFIED DATA SET NAME IS ENTERED, THE               02000000
*         CATALOG MUST BE READ TWICE, ONCE TO APPEND A                  02010000
*         TRAILING QUALIFIER IF NECESSARY, AND AGAIN DURING             02020000
*         ALLOCATION. THE USER CAN ELIMINATE THE FIRST BY USING         02030000
*         THE FULLY QUALIFIED NAME, PREFIX AND ALL, IN QUOTES,          02040000
*         OR BY ENTERING ALL BUT THE PREFIX, WITHOUT QUOTES,            02050000
*         PLUS THE KEYWORD 'Q'. THE LATTER IS MUCH SIMPLER              02060000
*         AND GIVES THE SAME PERFORMANCE IMPROVEMENT AS A               02070000
*         FULLY QUALIFIED NAME.                                         02080000
*                                                                       02090000
*         THE 'FILE' KEYWORD IS USEFUL FOR LOOKING AT TEMPORARY         02100000
*         DATA SETS.  IT TELLS THE COMMAND TO TREAT THE FIRST           02110000
*         OPERAND AS A FILENAME (DDNAME) INSTEAD OF A DSNAME.           02120000
*         WHATEVER DATA SET IS CURRENTLY ALLOCATED TO THE               02130000
*         FILENAME WILL BE DISPLAYED (AND QUICKLY, BECAUSE              02140000
*         THE COMMAND DOESNT HAVE TO ALLOCATE ANYTHING).                02150000
*                                                                       02160000
*********************************************************************** 02170000
         SPACE                                                          02180000
         MACRO                                                          02190000
&NAME    MSG   &MSG                                                     02200000
&NAME    DC    AL2(&NAME.L-2)                                           02210000
         DC    C&MSG                                                    02220000
&NAME.L  EQU   *-&NAME                                                  02230000
         MEND                                                           02240000
         MACRO                                                          02250000
&NAME    DCS                                                            02260000
.********************************************************************** 02270000
.*                                                                    * 02280000
.*        DCS  -  DEFINE CONSTANT FOR SCREEN                          * 02290000
.*                                                                    * 02300000
.*        WRITTEN BY BILL GODFREY                                     * 02310000
.*        PLANNING RESEARCH CORPORATION                               * 02320000
.*        PRC COMPUTER CENTER, MCLEAN VA 22101                        * 02330000
.*        DATE WRITTEN. JANUARY 8 1981.                               * 02340000
.*        DATE UPDATED. MARCH 18 1982. (ROW AND COL IN PARENS)        * 02350000
.*                                                                    * 02360000
.*        THIS MACRO IS USED FOR CODING A FULLSCREEN 3270 DISPLAY.    * 02370000
.*                                                                    * 02380000